36
Image #1
Na  0.000318 12.017296 3.609719    +1.0
Na  3.974518 4.032803 3.623984    +1.0
Na  2.002880 2.002880 0.900000    +1.0 
Na  6.008640 6.008640 0.900000    +1.0 
Na  2.002880 6.008640 0.900000    +1.0 
Na  6.008640 2.002880 0.900000    +1.0 
Na  0.000095 3.993354 3.593799    +1.0 
Na  3.992037 12.016329 3.593786    +1.0 
Na  8.025717 12.016866 3.593617    +1.0 
Na  10.014400 2.002880 0.900000    +1.0 
Na  10.014400 6.008640 0.900000    +1.0 
Na  7.982991 3.975850 3.624132    +1.0 
Na  0.000318 8.024873 3.593641    +1.0 
Na  2.002880 10.014400 0.900000    +1.0 
Na  6.008640 10.014400 0.900000    +1.0 
Na  4.033665 8.039327 3.626580    +1.0 
Na  8.039987 7.981451 3.626613    +1.0 
Na  10.014400 10.014400 0.900000    +1.0 
Cl  0.000000 4.005760 0.900000    -1.0 
Cl  4.005760 0.000000 0.900000    -1.0  
Cl  1.958827 6.024285 3.706108    -1.0  
Cl  5.992966 1.957163 3.705475    -1.0  
Cl  1.994874 2.001072 3.752317    -1.0  
Cl  6.005954 6.006802 3.472817    -1.0  
Cl  0.000000 0.000000 0.900000    -1.0  
Cl  4.005760 4.005760 0.900000    -1.0  
Cl  8.011520 4.005760 0.900000    -1.0  
Cl  10.056065 5.993250 3.707146    -1.0  
Cl  10.016035 1.995301 3.752269    -1.0  
Cl  8.011520 0.000000 0.900000    -1.0  
Cl  4.005760 8.011520 0.900000    -1.0  
Cl  6.023615 10.055982 3.707182    -1.0  
Cl  2.001491 10.022028 3.752355    -1.0  
Cl  0.000000 8.011520 0.900000    -1.0  
Cl  10.022085 10.015771 3.752142    -1.0  
Cl  8.011520 8.011520 0.900000    -1.0  
