72
# Cu 111 6x6
 Cu        -0.0000000000        1.4737760000        5.0000000000
 Cu         2.5526550000        1.4737760000        5.0000000000
 Cu         5.1053100000        1.4737760000        5.0000000000
 Cu         7.6579660000        1.4737760000        5.0000000000
 Cu        10.2106200000        1.4737760000        5.0000000000
 Cu        12.7632770000        1.4737760000        5.0000000000
 Cu         1.2763270000        3.6844390000        5.0000000000
 Cu         3.8289830000        3.6844390000        5.0000000000
 Cu         6.3816370000        3.6844390000        5.0000000000
 Cu         8.9342930000        3.6844390000        5.0000000000
 Cu        11.4869480000        3.6844390000        5.0000000000
 Cu        14.0396040000        3.6844390000        5.0000000000
 Cu         0.0000000000        5.8951050000        5.0000000000
 Cu         2.5526550000        5.8951050000        5.0000000000
 Cu         5.1053100000        5.8951050000        5.0000000000
 Cu         7.6579660000        5.8951050000        5.0000000000
 Cu        10.2106200000        5.8951050000        5.0000000000
 Cu        12.7632770000        5.8951050000        5.0000000000
 Cu         1.2763270000        8.1057690000        5.0000000000
 Cu         3.8289830000        8.1057690000        5.0000000000
 Cu         6.3816370000        8.1057690000        5.0000000000
 Cu         8.9342930000        8.1057690000        5.0000000000
 Cu        11.4869480000        8.1057690000        5.0000000000
 Cu        14.0396040000        8.1057690000        5.0000000000
 Cu        -0.0000000000       10.3164330000        5.0000000000
 Cu         2.5526550000       10.3164330000        5.0000000000
 Cu         5.1053100000       10.3164330000        5.0000000000
 Cu         7.6579660000       10.3164330000        5.0000000000
 Cu        10.2106200000       10.3164330000        5.0000000000
 Cu        12.7632770000       10.3164330000        5.0000000000
 Cu         1.2763270000       12.5270980000        5.0000000000
 Cu         3.8289830000       12.5270980000        5.0000000000
 Cu         6.3816370000       12.5270980000        5.0000000000
 Cu         8.9342930000       12.5270980000        5.0000000000
 Cu        11.4869480000       12.5270980000        5.0000000000
 Cu        14.0396040000       12.5270980000        5.0000000000
 Cu         0.0000690481        0.0010365517        7.0873634271
 Cu         2.5527369180        0.0010183951        7.0863362913
 Cu         5.1052399529        0.0010874541        7.0867061664
 Cu         7.6578148985        0.0011222831        7.0862144422
 Cu        10.2106431856        0.0011516340        7.0871342281
 Cu        12.7632822909        0.0010812456        7.0857827828
 Cu         1.2756219681        2.2118070018        7.0864707709
 Cu         3.8299251281        2.2121454729        7.0871930247
 Cu         6.3807288758        2.2121476173        7.0871198431
 Cu         8.9349385493        2.2119585448        7.0865049153
 Cu        11.4862173312        2.2116548769        7.0863863517
 Cu        14.0404053186        2.2116697057        7.0864954147
 Cu         0.0002427653        4.4222624539        7.0866094088
 Cu         2.5529938671        4.4223414873        7.0871960837
 Cu         5.1055651068        4.4218256320        7.0867133369
 Cu         7.6573893086        4.4226454633        7.0881371651
 Cu        10.2102461898        4.4220676781        7.0868069369
 Cu        12.7633290522        4.4220738949        7.0866999313
 Cu         1.2756748912        6.6328225249        7.0874562587
 Cu         3.8283152802        6.6324503974        7.0814423597
 Cu         6.3817209427        6.6325789261        7.0840413541
 Cu         8.9346637449        6.6324678170        7.0887722433
 Cu        11.4859921164        6.6326389810        7.0860404660
 Cu        14.0407361068        6.6328037644        7.0856338281
 Cu         0.0003717283        8.8435909260        7.0859445352
 Cu         2.5529641646        8.8433893434        7.0869993759
 Cu         5.1052672555        8.8442996638        7.0853680836
 Cu         7.6573775178        8.8432947045        7.0889713300
 Cu        10.2106373649        8.8435865923        7.0867315677
 Cu        12.7635730333        8.8436812022        7.0864724299
 Cu         1.2757118237       11.0541786189        7.0861390768
 Cu         3.8299041172       11.0538935328        7.0872489074
 Cu         6.3804697268       11.0540293636        7.0875504740
 Cu         8.9349904196       11.0543443132        7.0861294367
 Cu        11.4863325249       11.0544567721        7.0866590443
 Cu        14.0404453001       11.0543325027        7.0864119118

