8

Cl         2.17586        1.46668        0.09581
C          4.62216        4.11102       -1.13128
C          3.67836        3.08593       -1.09595
N          5.11198        4.65705        0.05228
C          3.20884        2.57848        0.12818
C          4.65224        4.18797        1.28977
C          3.68722        3.14484        1.34215
O          5.13997        4.75566        2.47728
