
 OpenBabel09092114493D

 12 12  0  0  0  0  0  0  0  0999 V2000
    4.6222    4.1110   -1.1313 C   0  0  0  0  0  0  0  0  0  0  0  0
    3.6784    3.0859   -1.0959 C   0  0  0  0  0  0  0  0  0  0  0  0
    5.1120    4.6571    0.0523 N   0  0  0  0  0  0  0  0  0  0  0  0
    3.2088    2.5785    0.1282 C   0  0  0  0  0  0  0  0  0  0  0  0
    2.1759    1.4667    0.0958 Cl  0  0  0  0  0  0  0  0  0  0  0  0
    4.6522    4.1880    1.2898 C   0  0  0  0  0  0  0  0  0  0  0  0
    3.6872    3.1448    1.3422 C   0  0  0  0  0  0  0  0  0  0  0  0
    5.1400    4.7557    2.4773 O   0  0  0  0  0  0  0  0  0  0  0  0
    3.2263    2.7152    2.6059 H   0  0  0  0  0  0  0  0  0  0  0  0
    4.9761    4.4866   -2.0862 H   0  0  0  0  0  0  0  0  0  0  0  0
    3.3113    2.6838   -2.0358 H   0  0  0  0  0  0  0  0  0  0  0  0
    5.8478    5.4552    0.0000 H   0  0  0  0  0  0  0  0  0  0  0  0
  1  2  2  0  0  0  0
  1  3  1  0  0  0  0
  2  4  1  0  0  0  0
  3  6  1  0  0  0  0
  4  7  2  0  0  0  0
  5  4  1  0  0  0  0
  6  7  1  0  0  0  0
  6  8  2  0  0  0  0
  7  9  1  0  0  0  0
 10  1  1  0  0  0  0
 11  2  1  0  0  0  0
 12  3  1  0  0  0  0
M  END
