20
#  element   X            Y              Z      Q    npi
   C     -3.719491     -1.460588     -1.457511  0.0  1
   C     -2.916589     -0.325815     -1.352873  0.0  1
   C      4.622156      4.111023     -1.131277  0.0  1
   C      3.678356      3.085926     -1.095949  0.0  1
   C      0.450999      3.388075      0.025666  0.0  2
   C      0.211014      4.569331      0.012179  0.0  2
   N      5.111982      4.657053      0.052279  0.0  0
   N     -4.218421     -2.076830     -0.312877  0.0  1
   C     -1.713799      1.448677     -0.052418  0.0  0
   C     -2.600660      0.222486     -0.097265  0.0  1
   C     -0.254778      1.061371     -0.003358  0.0  1
   C      0.744044      1.965553      0.042248  0.0  1
   C      3.208841      2.578475      0.128179  0.0  1
   C      2.175857      1.466676      0.095806  0.0  0
   C      4.652243      4.187973      1.289767  0.0  1
   C     -3.911541     -1.565887      0.954960  0.0  1
   C      3.687217      3.144842      1.342151  0.0  1
   C     -3.092630     -0.409712      1.078179  0.0  1
   O      5.139973      4.755662      2.477275  0.0  1
   N     -4.408775     -2.201839      2.103263  0.0  0
