45
#  element   X            Y              Z      Q    npi
   C     -8.319490     -0.860588     -1.257511  0.00  1
   C     -7.516588      0.274185     -1.152873  0.00  1
   C      7.022154      1.511020     -0.931277  0.00  1
   C      6.078356      0.485925     -0.895949  0.00  1
   C     -0.349000     -0.011925      0.025666  0.00  2
   C      0.811013     -0.630669      0.012179  0.00  2
   N      7.511981      2.057050      0.252278  0.00  1
   N     -8.818419     -1.476830     -0.112877  0.00  1
   C     -3.913797      2.248676      0.147582  0.00  0
   C     -7.200658      0.822486      0.102735  0.00  1
   C     -2.654777      1.461371      0.196642  0.00  2
   C     -1.655956      0.765553      0.242248  0.00  2
   C      5.608838     -0.021525      0.328177  0.00  1
   C     -5.024142      1.266675      0.295806  0.00  0
   C      7.052241      1.587971      1.489767  0.00  1
   C     -8.511540     -0.965887      1.154960  0.00  1
   C      6.087214      0.544841      1.542151  0.00  1
   C     -7.692629      0.190288      1.278178  0.00  1
   O      7.539971      2.155660      2.677274  0.00  1
   C      4.575854     -1.133323      0.295806  0.00  0
   C     -6.313799      2.048677      0.147582  0.00  0
   N     -9.008772     -1.601837      2.303262  0.00  1
   C      3.286200     -0.551323      0.147582  0.00  0
   C      2.175856     -1.533323      0.295806  0.00  0
   H      5.626324      0.115190      2.605938
   H     -7.389650      0.667231      2.372510
   H     -8.698453     -1.109051      3.370505
   H     -8.555388     -1.267155     -2.235990
   H     -7.138294      0.729193     -2.063638
   H      7.376051      1.886581     -1.886164
   H      5.711281      0.083841     -1.835807
   H     -4.177141      2.874876      1.030180
   H     -4.085461      2.885329     -0.751849
   H     -4.886381      0.606111      1.182218
   H     -4.850753      0.612260     -0.590681
   H      8.247811      2.855216      0.200000
   H     -9.636554     -2.485174      2.220232
   H      4.749247     -1.787741     -0.590681
   H     -6.485463      2.685328     -0.751849
   H      4.713618     -1.793890      1.182218
   H      3.114536      0.085328     -0.751849
   H     -6.577143      2.674875      1.030180
   H      2.349245     -2.187739     -0.590681
   H      3.022857      0.074875      1.030180
   H      2.313617     -2.193887      1.182218
