12

C          0.45100        3.38808        0.02567
C          0.21101        4.56933        0.01218
C         -1.71380        1.44868       -0.05242
Cl        -2.60066        0.22249       -0.09727
C         -0.25478        1.06137       -0.00336
C          0.74404        1.96555        0.04225
Cl         3.20884        2.57848        0.12818
C          2.17586        1.46668        0.09581
H         -1.97714        2.07488        0.83018
H         -1.88546        2.08533       -0.95185
H          2.31362        0.80611        0.98222
H          2.34925        0.81226       -0.79068
